! RKS BP86 RI SlowConv TightSCF def2-SV(P) def2-SV/J NORMALPRINT 
 

%pal nprocs NSLOTS
     end

%basis NewGTO 28 "def2-TZVP" end
       NewGTO 16 "def2-TZVP" end
       NewAuxGTO 28 "def2-TZVP/J"  end
       NewAuxGTO 16 "def2-TZVP/J"  end
       end

*xyz 0 1
Ni         0.00000        0.00000        0.00000
S          0.00000       -2.17467       -0.00000
S         -2.17065        0.08607        0.02286
C         -1.69143       -2.56751       -0.06152
C         -2.63528       -1.58211       -0.06773
S          0.00000        2.17468        0.00000
S          2.17065       -0.08607       -0.02286
C          1.69143        2.56751        0.06152
C          2.63528        1.58211        0.06773
C         -2.05848       -3.95592       -0.08057
C         -4.02902       -1.88351       -0.18471
N         -2.33934       -5.06838       -0.08430
N         -5.15009       -2.11169       -0.29020
C          2.05848        3.95592        0.08057
C          4.02902        1.88351        0.18471
N          2.33934        5.06838        0.08430
N          5.15009        2.11169        0.29020
*
